sistemas/6Bus.cdf
 03/06/12 OBSERV EXEMP           100.0  2012 W UFF 6 Bus Test Case
=========1=========2=========3=========4=========5=========6=========7=========8=========9=========0=========1=========2=========3==
1234 NNNNNNNNNNNN AAZZZ TT X.XXXX+XXX.XX+XXXXX.XX+XXXXX.XX+XXXXX.XX+XXXX.XX XXXX.XX X.XXXX+XXXX.XX+XXXX.XX+XX.XXXX+XX.XXXX 1234 1234
BUS DATA FOLLOWS                            06 ITEMS
   1 Bus 1  440kV  1  1  3 1.0600   0.00     0.00     0.00   232.39  -16.55    0.00 1.0600    0.00    0.00  0.0000  0.0000    0
   2 Bus 2  440kV  1  1  2 1.0450  -4.98    21.70    12.70    40.00   43.56    0.00 1.0450   50.00  -40.00  0.0000  0.0000    0
   3 Bus 3  440kV  1  1  2 1.0100 -12.73    94.20    19.00     0.00   25.08    0.00 1.0100   40.00    0.00  0.0000  0.0000    0
   4 Bus 4  440kV  1  1  0 1.0180 -10.31    47.80    -3.90     0.00    0.00    0.00 0.0000    0.00    0.00  0.0000  0.0000    0
   5 Bus 5  440kV  1  1  0 1.0200  -8.77     7.60     1.60     0.00    0.00    0.00 0.0000    0.00    0.00  0.0000  0.0000    0
   6 Bus 6  440kV  1  1  2 1.0700 -14.22    11.20     7.50     0.00   12.73    0.00 1.0700   24.00   -6.00  0.0000  0.0000    0
-999
=========1=========2=========3=========4=========5=========6=========7=========8=========9=========0=========1=========2=========3==
1234 1234 AAZZZ C T+xx.xxxxxx+xx.xxxxxx xxx.xxxxx 12345 12345 12345 1234 1  x.xxxx +xxx.xx x.xxxx x.xxxx .xxxxx  x.xxxx  x.xxxx 1234
BRANCH DATA FOLLOWS                         06 ITEMS
   1    2  1  1 1 0  0.019380  0.059170   0.05280     0     0     0    0 0  0.0000    0.00 0.0000 0.0000 .00000  0.0000  0.0000
   1    3  1  1 1 0  0.054030  0.223040   0.04920     0     0     0    0 0  0.0000    0.00 0.0000 0.0000 .00000  0.0000  0.0000
   2    3  1  1 1 0  0.046990  0.197970   0.04380     0     0     0    0 0  0.0000    0.00 0.0000 0.0000 .00000  0.0000  0.0000
   3    4  1  1 1 0  0.058110  0.176320   0.03400     0     0     0    0 0  0.0000    0.00 0.0000 0.0000 .00000  0.0000  0.0000
   4    5  1  1 1 0  0.056950  0.173880   0.03460     0     0     0    0 0  0.0000    0.00 0.0000 0.0000 .00000  0.0000  0.0000
   4    6  1  1 1 0  0.067010  0.171030   0.01280     0     0     0    0 0  0.0000    0.00 0.0000 0.0000 .00000  0.0000  0.0000
-999
LOSS ZONES FOLLOWS                     0 ITEMS
-99
INTERCHANGE DATA FOLLOWS                 0 ITEMS
-9
TIE LINES FOLLOWS                     0 ITEMS
-999
END OF DATA
